**Calculix input file generated by Calculix_input.py 
**Created for investigation 005_Calculix_grid with mesh of 10 10 1 
**element sizes are l=500 t=500 and h=700  and gaps between elements in direction xy
**gap sizes are: 
**if gap direction xy then x = 10.00 and y = 10.00 
**if gap direction x then x = 10.00 and y = 0 
**if gap direction y then x = 0 and y = 10.00

*NODE, NSET=Nall
	1, 0.0000, 0.0000, 0.0000
	2, 500.0000, 0.0000, 0.0000
	3, 510.0000, 0.0000, 0.0000
	4, 1010.0000, 0.0000, 0.0000
	5, 1020.0000, 0.0000, 0.0000
	6, 1520.0000, 0.0000, 0.0000
	7, 1530.0000, 0.0000, 0.0000
	8, 2030.0000, 0.0000, 0.0000
	9, 2040.0000, 0.0000, 0.0000
	10, 2540.0000, 0.0000, 0.0000
	11, 2550.0000, 0.0000, 0.0000
	12, 3050.0000, 0.0000, 0.0000
	13, 3060.0000, 0.0000, 0.0000
	14, 3560.0000, 0.0000, 0.0000
	15, 3570.0000, 0.0000, 0.0000
	16, 4070.0000, 0.0000, 0.0000
	17, 4080.0000, 0.0000, 0.0000
	18, 4580.0000, 0.0000, 0.0000
	19, 4590.0000, 0.0000, 0.0000
	20, 5090.0000, 0.0000, 0.0000
** ... 780 like lines cut
*ELEMENT, TYPE=C3D8, ELSET=Eall
	1, 1, 2, 22, 21, 401, 402, 422, 421
	2, 3, 4, 24, 23, 403, 404, 424, 423
	3, 5, 6, 26, 25, 405, 406, 426, 425
	4, 7, 8, 28, 27, 407, 408, 428, 427
	5, 9, 10, 30, 29, 409, 410, 430, 429
	6, 11, 12, 32, 31, 411, 412, 432, 431
	7, 13, 14, 34, 33, 413, 414, 434, 433
	8, 15, 16, 36, 35, 415, 416, 436, 435
	9, 17, 18, 38, 37, 417, 418, 438, 437
	10, 19, 20, 40, 39, 419, 420, 440, 439
	11, 34, 35, 55, 54, 434, 435, 455, 454
	12, 36, 37, 57, 56, 436, 437, 457, 456
	13, 38, 39, 59, 58, 438, 439, 459, 458
	14, 40, 41, 61, 60, 440, 441, 461, 460
	15, 42, 43, 63, 62, 442, 443, 463, 462
	16, 44, 45, 65, 64, 444, 445, 465, 464
	17, 46, 47, 67, 66, 446, 447, 467, 466
	18, 48, 49, 69, 68, 448, 449, 469, 468
	19, 50, 51, 71, 70, 450, 451, 471, 470
	20, 52, 53, 73, 72, 452, 453, 473, 472
** ... 80 like lines cut
*ELEMENT,TYPE=SPRINGA,ELSET=S_SPRINGS
	101, 2, 3
	102, 22, 23
	103, 402, 403
	104, 422, 423
	105, 4, 5
	106, 24, 25
	107, 404, 405
	108, 424, 425
	109, 6, 7
	110, 26, 27
	111, 406, 407
	112, 426, 427
	113, 8, 9
	114, 28, 29
	115, 408, 409
	116, 428, 429
	117, 10, 11
	118, 30, 31
	119, 410, 411
	120, 430, 431
** ... 700 like lines cut

*NSET,NSET=cubes_xy_plane
1,
2,
3,
4,
5,
6,
7,
8,
9,
10,
11,
12,
13,
14,
15,
16,
17,
18,
19,
20,
** ... 380 like lines cut

*NSET,NSET=cubes_xz_plane
1,
2,
3,
4,
5,
6,
7,
8,
9,
10,
11,
12,
13,
14,
15,
16,
17,
18,
19,
20,
** ... 20 like lines cut

*NSET,NSET=cubes_yz_plane
1,
21,
41,
61,
81,
101,
121,
141,
161,
181,
201,
221,
241,
261,
281,
301,
321,
341,
361,
381,
** ... 20 like lines cut

*NSET,NSET=cubes_x_max
20,
40,
60,
80,
100,
120,
140,
160,
180,
200,
220,
240,
260,
280,
300,
320,
340,
360,
380,
400,
** ... 20 like lines cut

*NSET,NSET=cubes_y_max
381,
382,
383,
384,
385,
386,
387,
388,
389,
390,
391,
392,
393,
394,
395,
396,
397,
398,
399,
400,
** ... 20 like lines cut

*NSET,NSET=cubes_z_max
401,
402,
403,
404,
405,
406,
407,
408,
409,
410,
411,
412,
413,
414,
415,
416,
417,
418,
419,
420,
** ... 380 like lines cut

*NSET,NSET=cube9
316,
317,
337,
336,
716,
717,
737,
736,

*BOUNDARY
cubes_xy_plane,3,3
cubes_xz_plane,2,2
cubes_yz_plane,1,1

*PHYSICAL CONSTANTS, ABSOLUTE ZERO=0.0000, STEFAN BOLTZMANN=5.67E-08

*INITIAL CONDITIONS, TYPE=TEMPERATURE
Nall,  0.0000

*MATERIAL,NAME=EL
*ELASTIC
210000.000,   0.3000
*DENSITY
7800.000
*CONDUCTIVITY
1000.000
*EXPANSION
2.50E-05
*SPECIFIC HEAT
5000.000

*SOLID SECTION,ELSET=Eall,MATERIAL=EL

*SPRING,ELSET=S_SPRINGS
 1.00E+00

*SURFACE,NAME=el1_x_p
1,S4
*SURFACE,NAME=el1_x_n
1,S6
*SURFACE,NAME=el1_y_p
1,S5
*SURFACE,NAME=el1_y_n
1,S3
*SURFACE,NAME=el2_x_p
2,S4
*SURFACE,NAME=el2_x_n
2,S6
*SURFACE,NAME=el2_y_p
2,S5
*SURFACE,NAME=el2_y_n
2,S3
*SURFACE,NAME=el3_x_p
3,S4
*SURFACE,NAME=el3_x_n
3,S6
*SURFACE,NAME=el3_y_p
3,S5
*SURFACE,NAME=el3_y_n
3,S3
*SURFACE,NAME=el4_x_p
4,S4
*SURFACE,NAME=el4_x_n
4,S6
*SURFACE,NAME=el4_y_p
4,S5
*SURFACE,NAME=el4_y_n
4,S3
*SURFACE,NAME=el5_x_p
5,S4
*SURFACE,NAME=el5_x_n
5,S6
*SURFACE,NAME=el5_y_p
5,S5
*SURFACE,NAME=el5_y_n
5,S3
*SURFACE,NAME=el6_x_p
6,S4
*SURFACE,NAME=el6_x_n
6,S6
*SURFACE,NAME=el6_y_p
6,S5
*SURFACE,NAME=el6_y_n
6,S3
*SURFACE,NAME=el7_x_p
7,S4
*SURFACE,NAME=el7_x_n
7,S6
*SURFACE,NAME=el7_y_p
7,S5
*SURFACE,NAME=el7_y_n
7,S3
*SURFACE,NAME=el8_x_p
8,S4
*SURFACE,NAME=el8_x_n
8,S6
*SURFACE,NAME=el8_y_p
8,S5
*SURFACE,NAME=el8_y_n
8,S3
*SURFACE,NAME=el9_x_p
9,S4
*SURFACE,NAME=el9_x_n
9,S6
*SURFACE,NAME=el9_y_p
9,S5
*SURFACE,NAME=el9_y_n
9,S3
*SURFACE,NAME=el10_x_p
10,S4
*SURFACE,NAME=el10_x_n
10,S6
*SURFACE,NAME=el10_y_p
10,S5
*SURFACE,NAME=el10_y_n
10,S3
*SURFACE,NAME=el11_x_p
11,S4
*SURFACE,NAME=el11_x_n
11,S6
*SURFACE,NAME=el11_y_p
11,S5
*SURFACE,NAME=el11_y_n
11,S3
*SURFACE,NAME=el12_x_p
12,S4
*SURFACE,NAME=el12_x_n
12,S6
*SURFACE,NAME=el12_y_p
12,S5
*SURFACE,NAME=el12_y_n
12,S3
*SURFACE,NAME=el13_x_p
13,S4
*SURFACE,NAME=el13_x_n
13,S6
*SURFACE,NAME=el13_y_p
13,S5
*SURFACE,NAME=el13_y_n
13,S3
*SURFACE,NAME=el14_x_p
14,S4
*SURFACE,NAME=el14_x_n
14,S6
*SURFACE,NAME=el14_y_p
14,S5
*SURFACE,NAME=el14_y_n
14,S3
*SURFACE,NAME=el15_x_p
15,S4
*SURFACE,NAME=el15_x_n
15,S6
*SURFACE,NAME=el15_y_p
15,S5
*SURFACE,NAME=el15_y_n
15,S3
*SURFACE,NAME=el16_x_p
16,S4
*SURFACE,NAME=el16_x_n
16,S6
*SURFACE,NAME=el16_y_p
16,S5
*SURFACE,NAME=el16_y_n
16,S3
*SURFACE,NAME=el17_x_p
17,S4
*SURFACE,NAME=el17_x_n
17,S6
*SURFACE,NAME=el17_y_p
17,S5
*SURFACE,NAME=el17_y_n
17,S3
*SURFACE,NAME=el18_x_p
18,S4
*SURFACE,NAME=el18_x_n
18,S6
*SURFACE,NAME=el18_y_p
18,S5
*SURFACE,NAME=el18_y_n
18,S3
*SURFACE,NAME=el19_x_p
19,S4
*SURFACE,NAME=el19_x_n
19,S6
*SURFACE,NAME=el19_y_p
19,S5
*SURFACE,NAME=el19_y_n
19,S3
*SURFACE,NAME=el20_x_p
20,S4
*SURFACE,NAME=el20_x_n
20,S6
*SURFACE,NAME=el20_y_p
20,S5
*SURFACE,NAME=el20_y_n
20,S3
*SURFACE,NAME=el21_x_p
21,S4
*SURFACE,NAME=el21_x_n
21,S6
*SURFACE,NAME=el21_y_p
21,S5
*SURFACE,NAME=el21_y_n
21,S3
*SURFACE,NAME=el22_x_p
22,S4
*SURFACE,NAME=el22_x_n
22,S6
*SURFACE,NAME=el22_y_p
22,S5
*SURFACE,NAME=el22_y_n
22,S3
*SURFACE,NAME=el23_x_p
23,S4
*SURFACE,NAME=el23_x_n
23,S6
*SURFACE,NAME=el23_y_p
23,S5
*SURFACE,NAME=el23_y_n
23,S3
*SURFACE,NAME=el24_x_p
24,S4
*SURFACE,NAME=el24_x_n
24,S6
*SURFACE,NAME=el24_y_p
24,S5
*SURFACE,NAME=el24_y_n
24,S3
*SURFACE,NAME=el25_x_p
25,S4
*SURFACE,NAME=el25_x_n
25,S6
*SURFACE,NAME=el25_y_p
25,S5
*SURFACE,NAME=el25_y_n
25,S3
*SURFACE,NAME=el26_x_p
26,S4
*SURFACE,NAME=el26_x_n
26,S6
*SURFACE,NAME=el26_y_p
26,S5
*SURFACE,NAME=el26_y_n
26,S3
*SURFACE,NAME=el27_x_p
27,S4
*SURFACE,NAME=el27_x_n
27,S6
*SURFACE,NAME=el27_y_p
27,S5
*SURFACE,NAME=el27_y_n
27,S3
*SURFACE,NAME=el28_x_p
28,S4
*SURFACE,NAME=el28_x_n
28,S6
*SURFACE,NAME=el28_y_p
28,S5
*SURFACE,NAME=el28_y_n
28,S3
*SURFACE,NAME=el29_x_p
29,S4
*SURFACE,NAME=el29_x_n
29,S6
*SURFACE,NAME=el29_y_p
29,S5
*SURFACE,NAME=el29_y_n
29,S3
*SURFACE,NAME=el30_x_p
30,S4
*SURFACE,NAME=el30_x_n
30,S6
*SURFACE,NAME=el30_y_p
30,S5
*SURFACE,NAME=el30_y_n
30,S3
*SURFACE,NAME=el31_x_p
31,S4
*SURFACE,NAME=el31_x_n
31,S6
*SURFACE,NAME=el31_y_p
31,S5
*SURFACE,NAME=el31_y_n
31,S3
*SURFACE,NAME=el32_x_p
32,S4
*SURFACE,NAME=el32_x_n
32,S6
*SURFACE,NAME=el32_y_p
32,S5
*SURFACE,NAME=el32_y_n
32,S3
*SURFACE,NAME=el33_x_p
33,S4
*SURFACE,NAME=el33_x_n
33,S6
*SURFACE,NAME=el33_y_p
33,S5
*SURFACE,NAME=el33_y_n
33,S3
*SURFACE,NAME=el34_x_p
34,S4
*SURFACE,NAME=el34_x_n
34,S6
*SURFACE,NAME=el34_y_p
34,S5
*SURFACE,NAME=el34_y_n
34,S3
*SURFACE,NAME=el35_x_p
35,S4
*SURFACE,NAME=el35_x_n
35,S6
*SURFACE,NAME=el35_y_p
35,S5
*SURFACE,NAME=el35_y_n
35,S3
*SURFACE,NAME=el36_x_p
36,S4
*SURFACE,NAME=el36_x_n
36,S6
*SURFACE,NAME=el36_y_p
36,S5
*SURFACE,NAME=el36_y_n
36,S3
*SURFACE,NAME=el37_x_p
37,S4
*SURFACE,NAME=el37_x_n
37,S6
*SURFACE,NAME=el37_y_p
37,S5
*SURFACE,NAME=el37_y_n
37,S3
*SURFACE,NAME=el38_x_p
38,S4
*SURFACE,NAME=el38_x_n
38,S6
*SURFACE,NAME=el38_y_p
38,S5
*SURFACE,NAME=el38_y_n
38,S3
*SURFACE,NAME=el39_x_p
39,S4
*SURFACE,NAME=el39_x_n
39,S6
*SURFACE,NAME=el39_y_p
39,S5
*SURFACE,NAME=el39_y_n
39,S3
*SURFACE,NAME=el40_x_p
40,S4
*SURFACE,NAME=el40_x_n
40,S6
*SURFACE,NAME=el40_y_p
40,S5
*SURFACE,NAME=el40_y_n
40,S3
*SURFACE,NAME=el41_x_p
41,S4
*SURFACE,NAME=el41_x_n
41,S6
*SURFACE,NAME=el41_y_p
41,S5
*SURFACE,NAME=el41_y_n
41,S3
*SURFACE,NAME=el42_x_p
42,S4
*SURFACE,NAME=el42_x_n
42,S6
*SURFACE,NAME=el42_y_p
42,S5
*SURFACE,NAME=el42_y_n
42,S3
*SURFACE,NAME=el43_x_p
43,S4
*SURFACE,NAME=el43_x_n
43,S6
*SURFACE,NAME=el43_y_p
43,S5
*SURFACE,NAME=el43_y_n
43,S3
*SURFACE,NAME=el44_x_p
44,S4
*SURFACE,NAME=el44_x_n
44,S6
*SURFACE,NAME=el44_y_p
44,S5
*SURFACE,NAME=el44_y_n
44,S3
*SURFACE,NAME=el45_x_p
45,S4
*SURFACE,NAME=el45_x_n
45,S6
*SURFACE,NAME=el45_y_p
45,S5
*SURFACE,NAME=el45_y_n
45,S3
*SURFACE,NAME=el46_x_p
46,S4
*SURFACE,NAME=el46_x_n
46,S6
*SURFACE,NAME=el46_y_p
46,S5
*SURFACE,NAME=el46_y_n
46,S3
*SURFACE,NAME=el47_x_p
47,S4
*SURFACE,NAME=el47_x_n
47,S6
*SURFACE,NAME=el47_y_p
47,S5
*SURFACE,NAME=el47_y_n
47,S3
*SURFACE,NAME=el48_x_p
48,S4
*SURFACE,NAME=el48_x_n
48,S6
*SURFACE,NAME=el48_y_p
48,S5
*SURFACE,NAME=el48_y_n
48,S3
*SURFACE,NAME=el49_x_p
49,S4
*SURFACE,NAME=el49_x_n
49,S6
*SURFACE,NAME=el49_y_p
49,S5
*SURFACE,NAME=el49_y_n
49,S3
*SURFACE,NAME=el50_x_p
50,S4
*SURFACE,NAME=el50_x_n
50,S6
*SURFACE,NAME=el50_y_p
50,S5
*SURFACE,NAME=el50_y_n
50,S3
*SURFACE,NAME=el51_x_p
51,S4
*SURFACE,NAME=el51_x_n
51,S6
*SURFACE,NAME=el51_y_p
51,S5
*SURFACE,NAME=el51_y_n
51,S3
*SURFACE,NAME=el52_x_p
52,S4
*SURFACE,NAME=el52_x_n
52,S6
*SURFACE,NAME=el52_y_p
52,S5
*SURFACE,NAME=el52_y_n
52,S3
*SURFACE,NAME=el53_x_p
53,S4
*SURFACE,NAME=el53_x_n
53,S6
*SURFACE,NAME=el53_y_p
53,S5
*SURFACE,NAME=el53_y_n
53,S3
*SURFACE,NAME=el54_x_p
54,S4
*SURFACE,NAME=el54_x_n
54,S6
*SURFACE,NAME=el54_y_p
54,S5
*SURFACE,NAME=el54_y_n
54,S3
*SURFACE,NAME=el55_x_p
55,S4
*SURFACE,NAME=el55_x_n
55,S6
*SURFACE,NAME=el55_y_p
55,S5
*SURFACE,NAME=el55_y_n
55,S3
*SURFACE,NAME=el56_x_p
56,S4
*SURFACE,NAME=el56_x_n
56,S6
*SURFACE,NAME=el56_y_p
56,S5
*SURFACE,NAME=el56_y_n
56,S3
*SURFACE,NAME=el57_x_p
57,S4
*SURFACE,NAME=el57_x_n
57,S6
*SURFACE,NAME=el57_y_p
57,S5
*SURFACE,NAME=el57_y_n
57,S3
*SURFACE,NAME=el58_x_p
58,S4
*SURFACE,NAME=el58_x_n
58,S6
*SURFACE,NAME=el58_y_p
58,S5
*SURFACE,NAME=el58_y_n
58,S3
*SURFACE,NAME=el59_x_p
59,S4
*SURFACE,NAME=el59_x_n
59,S6
*SURFACE,NAME=el59_y_p
59,S5
*SURFACE,NAME=el59_y_n
59,S3
*SURFACE,NAME=el60_x_p
60,S4
*SURFACE,NAME=el60_x_n
60,S6
*SURFACE,NAME=el60_y_p
60,S5
*SURFACE,NAME=el60_y_n
60,S3
*SURFACE,NAME=el61_x_p
61,S4
*SURFACE,NAME=el61_x_n
61,S6
*SURFACE,NAME=el61_y_p
61,S5
*SURFACE,NAME=el61_y_n
61,S3
*SURFACE,NAME=el62_x_p
62,S4
*SURFACE,NAME=el62_x_n
62,S6
*SURFACE,NAME=el62_y_p
62,S5
*SURFACE,NAME=el62_y_n
62,S3
*SURFACE,NAME=el63_x_p
63,S4
*SURFACE,NAME=el63_x_n
63,S6
*SURFACE,NAME=el63_y_p
63,S5
*SURFACE,NAME=el63_y_n
63,S3
*SURFACE,NAME=el64_x_p
64,S4
*SURFACE,NAME=el64_x_n
64,S6
*SURFACE,NAME=el64_y_p
64,S5
*SURFACE,NAME=el64_y_n
64,S3
*SURFACE,NAME=el65_x_p
65,S4
*SURFACE,NAME=el65_x_n
65,S6
*SURFACE,NAME=el65_y_p
65,S5
*SURFACE,NAME=el65_y_n
65,S3
*SURFACE,NAME=el66_x_p
66,S4
*SURFACE,NAME=el66_x_n
66,S6
*SURFACE,NAME=el66_y_p
66,S5
*SURFACE,NAME=el66_y_n
66,S3
*SURFACE,NAME=el67_x_p
67,S4
*SURFACE,NAME=el67_x_n
67,S6
*SURFACE,NAME=el67_y_p
67,S5
*SURFACE,NAME=el67_y_n
67,S3
*SURFACE,NAME=el68_x_p
68,S4
*SURFACE,NAME=el68_x_n
68,S6
*SURFACE,NAME=el68_y_p
68,S5
*SURFACE,NAME=el68_y_n
68,S3
*SURFACE,NAME=el69_x_p
69,S4
*SURFACE,NAME=el69_x_n
69,S6
*SURFACE,NAME=el69_y_p
69,S5
*SURFACE,NAME=el69_y_n
69,S3
*SURFACE,NAME=el70_x_p
70,S4
*SURFACE,NAME=el70_x_n
70,S6
*SURFACE,NAME=el70_y_p
70,S5
*SURFACE,NAME=el70_y_n
70,S3
*SURFACE,NAME=el71_x_p
71,S4
*SURFACE,NAME=el71_x_n
71,S6
*SURFACE,NAME=el71_y_p
71,S5
*SURFACE,NAME=el71_y_n
71,S3
*SURFACE,NAME=el72_x_p
72,S4
*SURFACE,NAME=el72_x_n
72,S6
*SURFACE,NAME=el72_y_p
72,S5
*SURFACE,NAME=el72_y_n
72,S3
*SURFACE,NAME=el73_x_p
73,S4
*SURFACE,NAME=el73_x_n
73,S6
*SURFACE,NAME=el73_y_p
73,S5
*SURFACE,NAME=el73_y_n
73,S3
*SURFACE,NAME=el74_x_p
74,S4
*SURFACE,NAME=el74_x_n
74,S6
*SURFACE,NAME=el74_y_p
74,S5
*SURFACE,NAME=el74_y_n
74,S3
*SURFACE,NAME=el75_x_p
75,S4
*SURFACE,NAME=el75_x_n
75,S6
*SURFACE,NAME=el75_y_p
75,S5
*SURFACE,NAME=el75_y_n
75,S3
*SURFACE,NAME=el76_x_p
76,S4
*SURFACE,NAME=el76_x_n
76,S6
*SURFACE,NAME=el76_y_p
76,S5
*SURFACE,NAME=el76_y_n
76,S3
*SURFACE,NAME=el77_x_p
77,S4
*SURFACE,NAME=el77_x_n
77,S6
*SURFACE,NAME=el77_y_p
77,S5
*SURFACE,NAME=el77_y_n
77,S3
*SURFACE,NAME=el78_x_p
78,S4
*SURFACE,NAME=el78_x_n
78,S6
*SURFACE,NAME=el78_y_p
78,S5
*SURFACE,NAME=el78_y_n
78,S3
*SURFACE,NAME=el79_x_p
79,S4
*SURFACE,NAME=el79_x_n
79,S6
*SURFACE,NAME=el79_y_p
79,S5
*SURFACE,NAME=el79_y_n
79,S3
*SURFACE,NAME=el80_x_p
80,S4
*SURFACE,NAME=el80_x_n
80,S6
*SURFACE,NAME=el80_y_p
80,S5
*SURFACE,NAME=el80_y_n
80,S3
*SURFACE,NAME=el81_x_p
81,S4
*SURFACE,NAME=el81_x_n
81,S6
*SURFACE,NAME=el81_y_p
81,S5
*SURFACE,NAME=el81_y_n
81,S3
*SURFACE,NAME=el82_x_p
82,S4
*SURFACE,NAME=el82_x_n
82,S6
*SURFACE,NAME=el82_y_p
82,S5
*SURFACE,NAME=el82_y_n
82,S3
*SURFACE,NAME=el83_x_p
83,S4
*SURFACE,NAME=el83_x_n
83,S6
*SURFACE,NAME=el83_y_p
83,S5
*SURFACE,NAME=el83_y_n
83,S3
*SURFACE,NAME=el84_x_p
84,S4
*SURFACE,NAME=el84_x_n
84,S6
*SURFACE,NAME=el84_y_p
84,S5
*SURFACE,NAME=el84_y_n
84,S3
*SURFACE,NAME=el85_x_p
85,S4
*SURFACE,NAME=el85_x_n
85,S6
*SURFACE,NAME=el85_y_p
85,S5
*SURFACE,NAME=el85_y_n
85,S3
*SURFACE,NAME=el86_x_p
86,S4
*SURFACE,NAME=el86_x_n
86,S6
*SURFACE,NAME=el86_y_p
86,S5
*SURFACE,NAME=el86_y_n
86,S3
*SURFACE,NAME=el87_x_p
87,S4
*SURFACE,NAME=el87_x_n
87,S6
*SURFACE,NAME=el87_y_p
87,S5
*SURFACE,NAME=el87_y_n
87,S3
*SURFACE,NAME=el88_x_p
88,S4
*SURFACE,NAME=el88_x_n
88,S6
*SURFACE,NAME=el88_y_p
88,S5
*SURFACE,NAME=el88_y_n
88,S3
*SURFACE,NAME=el89_x_p
89,S4
*SURFACE,NAME=el89_x_n
89,S6
*SURFACE,NAME=el89_y_p
89,S5
*SURFACE,NAME=el89_y_n
89,S3
*SURFACE,NAME=el90_x_p
90,S4
*SURFACE,NAME=el90_x_n
90,S6
*SURFACE,NAME=el90_y_p
90,S5
*SURFACE,NAME=el90_y_n
90,S3
*SURFACE,NAME=el91_x_p
91,S4
*SURFACE,NAME=el91_x_n
91,S6
*SURFACE,NAME=el91_y_p
91,S5
*SURFACE,NAME=el91_y_n
91,S3
*SURFACE,NAME=el92_x_p
92,S4
*SURFACE,NAME=el92_x_n
92,S6
*SURFACE,NAME=el92_y_p
92,S5
*SURFACE,NAME=el92_y_n
92,S3
*SURFACE,NAME=el93_x_p
93,S4
*SURFACE,NAME=el93_x_n
93,S6
*SURFACE,NAME=el93_y_p
93,S5
*SURFACE,NAME=el93_y_n
93,S3
*SURFACE,NAME=el94_x_p
94,S4
*SURFACE,NAME=el94_x_n
94,S6
*SURFACE,NAME=el94_y_p
94,S5
*SURFACE,NAME=el94_y_n
94,S3
*SURFACE,NAME=el95_x_p
95,S4
*SURFACE,NAME=el95_x_n
95,S6
*SURFACE,NAME=el95_y_p
95,S5
*SURFACE,NAME=el95_y_n
95,S3
*SURFACE,NAME=el96_x_p
96,S4
*SURFACE,NAME=el96_x_n
96,S6
*SURFACE,NAME=el96_y_p
96,S5
*SURFACE,NAME=el96_y_n
96,S3
*SURFACE,NAME=el97_x_p
97,S4
*SURFACE,NAME=el97_x_n
97,S6
*SURFACE,NAME=el97_y_p
97,S5
*SURFACE,NAME=el97_y_n
97,S3
*SURFACE,NAME=el98_x_p
98,S4
*SURFACE,NAME=el98_x_n
98,S6
*SURFACE,NAME=el98_y_p
98,S5
*SURFACE,NAME=el98_y_n
98,S3
*SURFACE,NAME=el99_x_p
99,S4
*SURFACE,NAME=el99_x_n
99,S6
*SURFACE,NAME=el99_y_p
99,S5
*SURFACE,NAME=el99_y_n
99,S3
*SURFACE,NAME=el100_x_p
100,S4
*SURFACE,NAME=el100_x_n
100,S6
*SURFACE,NAME=el100_y_p
100,S5
*SURFACE,NAME=el100_y_n
100,S3
*CONTACT PAIR,INTERACTION=SI1,TYPE=SURFACE TO SURFACE
el1_x_p,el2_x_n
*CONTACT PAIR,INTERACTION=SI1,TYPE=SURFACE TO SURFACE
el2_x_p,el3_x_n
*CONTACT PAIR,INTERACTION=SI1,TYPE=SURFACE TO SURFACE
el3_x_p,el4_x_n
*CONTACT PAIR,INTERACTION=SI1,TYPE=SURFACE TO SURFACE
el4_x_p,el5_x_n
*CONTACT PAIR,INTERACTION=SI1,TYPE=SURFACE TO SURFACE
el5_x_p,el6_x_n
*CONTACT PAIR,INTERACTION=SI1,TYPE=SURFACE TO SURFACE
el6_x_p,el7_x_n
*CONTACT PAIR,INTERACTION=SI1,TYPE=SURFACE TO SURFACE
el7_x_p,el8_x_n
*CONTACT PAIR,INTERACTION=SI1,TYPE=SURFACE TO SURFACE
el8_x_p,el9_x_n
*CONTACT PAIR,INTERACTION=SI1,TYPE=SURFACE TO SURFACE
el9_x_p,el10_x_n
*CONTACT PAIR,INTERACTION=SI1,TYPE=SURFACE TO SURFACE
el11_x_p,el12_x_n
*CONTACT PAIR,INTERACTION=SI1,TYPE=SURFACE TO SURFACE
el12_x_p,el13_x_n
*CONTACT PAIR,INTERACTION=SI1,TYPE=SURFACE TO SURFACE
el13_x_p,el14_x_n
*CONTACT PAIR,INTERACTION=SI1,TYPE=SURFACE TO SURFACE
el14_x_p,el15_x_n
*CONTACT PAIR,INTERACTION=SI1,TYPE=SURFACE TO SURFACE
el15_x_p,el16_x_n
*CONTACT PAIR,INTERACTION=SI1,TYPE=SURFACE TO SURFACE
el16_x_p,el17_x_n
*CONTACT PAIR,INTERACTION=SI1,TYPE=SURFACE TO SURFACE
el17_x_p,el18_x_n
*CONTACT PAIR,INTERACTION=SI1,TYPE=SURFACE TO SURFACE
el18_x_p,el19_x_n
*CONTACT PAIR,INTERACTION=SI1,TYPE=SURFACE TO SURFACE
el19_x_p,el20_x_n
*CONTACT PAIR,INTERACTION=SI1,TYPE=SURFACE TO SURFACE
el21_x_p,el22_x_n
*CONTACT PAIR,INTERACTION=SI1,TYPE=SURFACE TO SURFACE
el22_x_p,el23_x_n
** ... 141 like lines cut
el1_y_p,el11_y_n
*CONTACT PAIR,INTERACTION=SI1,TYPE=SURFACE TO SURFACE
el2_y_p,el12_y_n
*CONTACT PAIR,INTERACTION=SI1,TYPE=SURFACE TO SURFACE
el3_y_p,el13_y_n
*CONTACT PAIR,INTERACTION=SI1,TYPE=SURFACE TO SURFACE
el4_y_p,el14_y_n
*CONTACT PAIR,INTERACTION=SI1,TYPE=SURFACE TO SURFACE
el5_y_p,el15_y_n
*CONTACT PAIR,INTERACTION=SI1,TYPE=SURFACE TO SURFACE
el6_y_p,el16_y_n
*CONTACT PAIR,INTERACTION=SI1,TYPE=SURFACE TO SURFACE
el7_y_p,el17_y_n
*CONTACT PAIR,INTERACTION=SI1,TYPE=SURFACE TO SURFACE
el8_y_p,el18_y_n
*CONTACT PAIR,INTERACTION=SI1,TYPE=SURFACE TO SURFACE
el9_y_p,el19_y_n
*CONTACT PAIR,INTERACTION=SI1,TYPE=SURFACE TO SURFACE
el10_y_p,el20_y_n
*CONTACT PAIR,INTERACTION=SI1,TYPE=SURFACE TO SURFACE
el11_y_p,el21_y_n
*CONTACT PAIR,INTERACTION=SI1,TYPE=SURFACE TO SURFACE
el12_y_p,el22_y_n
*CONTACT PAIR,INTERACTION=SI1,TYPE=SURFACE TO SURFACE
el13_y_p,el23_y_n
*CONTACT PAIR,INTERACTION=SI1,TYPE=SURFACE TO SURFACE
el14_y_p,el24_y_n
*CONTACT PAIR,INTERACTION=SI1,TYPE=SURFACE TO SURFACE
el15_y_p,el25_y_n
*CONTACT PAIR,INTERACTION=SI1,TYPE=SURFACE TO SURFACE
el16_y_p,el26_y_n
*CONTACT PAIR,INTERACTION=SI1,TYPE=SURFACE TO SURFACE
el17_y_p,el27_y_n
*CONTACT PAIR,INTERACTION=SI1,TYPE=SURFACE TO SURFACE
el18_y_p,el28_y_n
*CONTACT PAIR,INTERACTION=SI1,TYPE=SURFACE TO SURFACE
el19_y_p,el29_y_n
*CONTACT PAIR,INTERACTION=SI1,TYPE=SURFACE TO SURFACE
el20_y_p,el30_y_n
*CONTACT PAIR,INTERACTION=SI1,TYPE=SURFACE TO SURFACE
** ... 139 like lines cut
*SURFACE INTERACTION,NAME=SI1
*SURFACE BEHAVIOR,PRESSURE-OVERCLOSURE=LINEAR
1.00E+07

*STEP, INC=10000, NLGEOM
*STATIC
0.001, 1., 0.001, 0.009
*BOUNDARY
cubes_x_max,1,1,-30
cubes_y_max,2,2,-30

**Specify output 
*NODE PRINT, NSET=Nall, FREQUENCY=1
U
*EL PRINT, ELSET=Eall, FREQUENCY=1
S,E
*NODE FILE, FREQUENCY=1
U
*EL FILE, FREQUENCY=1
S,E
*END STEP