SUMMARY OF JOB INFORMATION
  STEP      INC     ATT  ITRS     TOT TIME     STEP TIME      INC TIME
     1          1     1    17  0.100000E-02  0.100000E-02  0.100000E-02
     1          2     1     5  0.200000E-02  0.200000E-02  0.100000E-02
     1          3     1     3  0.300000E-02  0.300000E-02  0.100000E-02
     1          4     1     3  0.450000E-02  0.450000E-02  0.150000E-02
     1          5     1     9  0.675000E-02  0.675000E-02  0.225000E-02
     1          6     1     9  0.101250E-01  0.101250E-01  0.337500E-02
     1          7     1     5  0.151875E-01  0.151875E-01  0.506250E-02
     1          8     1     4  0.227813E-01  0.227813E-01  0.759375E-02
     1          9     1     5  0.317813E-01  0.317813E-01  0.900000E-02
     1         10     1     8  0.407813E-01  0.407813E-01  0.900000E-02
     1         11     1    27  0.497813E-01  0.497813E-01  0.900000E-02
     1         12     1     5  0.587813E-01  0.587813E-01  0.900000E-02
     1         13     1     5  0.677813E-01  0.677813E-01  0.900000E-02
     1         14     1     3  0.767812E-01  0.767812E-01  0.900000E-02
     1         15     1     3  0.857812E-01  0.857812E-01  0.900000E-02
     1         16     1     3  0.947812E-01  0.947812E-01  0.900000E-02
     1         17     1     3  0.103781E+00  0.103781E+00  0.900000E-02
     1         18     1     3  0.112781E+00  0.112781E+00  0.900000E-02
     1         19     1     3  0.121781E+00  0.121781E+00  0.900000E-02
     1         20     1     3  0.130781E+00  0.130781E+00  0.900000E-02
     1         21     1     3  0.139781E+00  0.139781E+00  0.900000E-02
     1         22     1     3  0.148781E+00  0.148781E+00  0.900000E-02
     1         23     1     3  0.157781E+00  0.157781E+00  0.900000E-02
     1         24     1     3  0.166781E+00  0.166781E+00  0.900000E-02
     1         25     1     3  0.175781E+00  0.175781E+00  0.900000E-02
     1         26     1     3  0.184781E+00  0.184781E+00  0.900000E-02
     1         27     1     3  0.193781E+00  0.193781E+00  0.900000E-02
     1         28     1     3  0.202781E+00  0.202781E+00  0.900000E-02
     1         29     1     3  0.211781E+00  0.211781E+00  0.900000E-02
     1         30     1     3  0.220781E+00  0.220781E+00  0.900000E-02
     1         31     1     3  0.229781E+00  0.229781E+00  0.900000E-02
     1         32     1     3  0.238781E+00  0.238781E+00  0.900000E-02
     1         33     1     3  0.247781E+00  0.247781E+00  0.900000E-02
     1         34     1     3  0.256781E+00  0.256781E+00  0.900000E-02
     1         35     1     3  0.265781E+00  0.265781E+00  0.900000E-02
     1         36     1     3  0.274781E+00  0.274781E+00  0.900000E-02
     1         37     1     3  0.283781E+00  0.283781E+00  0.900000E-02
     1         38     1     3  0.292781E+00  0.292781E+00  0.900000E-02
     1         39     1     3  0.301781E+00  0.301781E+00  0.900000E-02
     1         40     1     3  0.310781E+00  0.310781E+00  0.900000E-02
     1         41     1     3  0.319781E+00  0.319781E+00  0.900000E-02
     1         42     1     3  0.328781E+00  0.328781E+00  0.900000E-02
     1         43     1     3  0.337781E+00  0.337781E+00  0.900000E-02
     1         44     1     3  0.346781E+00  0.346781E+00  0.900000E-02
     1         45     1     3  0.355781E+00  0.355781E+00  0.900000E-02
     1         46     1     3  0.364781E+00  0.364781E+00  0.900000E-02
     1         47     1     3  0.373781E+00  0.373781E+00  0.900000E-02
     1         48     1     3  0.382781E+00  0.382781E+00  0.900000E-02
     1         49     1     3  0.391781E+00  0.391781E+00  0.900000E-02
     1         50     1     3  0.400781E+00  0.400781E+00  0.900000E-02
     1         51     1     3  0.409781E+00  0.409781E+00  0.900000E-02
     1         52     1     3  0.418781E+00  0.418781E+00  0.900000E-02
     1         53     1     3  0.427781E+00  0.427781E+00  0.900000E-02
     1         54     1     3  0.436781E+00  0.436781E+00  0.900000E-02
     1         55     1     3  0.445781E+00  0.445781E+00  0.900000E-02
     1         56     1     3  0.454781E+00  0.454781E+00  0.900000E-02
     1         57     1     3  0.463781E+00  0.463781E+00  0.900000E-02
     1         58     1     3  0.472781E+00  0.472781E+00  0.900000E-02
     1         59     1     3  0.481781E+00  0.481781E+00  0.900000E-02
     1         60     1     3  0.490781E+00  0.490781E+00  0.900000E-02
     1         61     1     3  0.499781E+00  0.499781E+00  0.900000E-02
     1         62     1     3  0.508781E+00  0.508781E+00  0.900000E-02
     1         63     1     3  0.517781E+00  0.517781E+00  0.900000E-02
     1         64     1     3  0.526781E+00  0.526781E+00  0.900000E-02
     1         65     1     3  0.535781E+00  0.535781E+00  0.900000E-02
     1         66     1     3  0.544781E+00  0.544781E+00  0.900000E-02
     1         67     1     3  0.553781E+00  0.553781E+00  0.900000E-02
     1         68     1     3  0.562781E+00  0.562781E+00  0.900000E-02
     1         69     1     3  0.571781E+00  0.571781E+00  0.900000E-02
     1         70     1     3  0.580781E+00  0.580781E+00  0.900000E-02
     1         71     1     3  0.589781E+00  0.589781E+00  0.900000E-02
     1         72     1     3  0.598781E+00  0.598781E+00  0.900000E-02
     1         73     1     3  0.607781E+00  0.607781E+00  0.900000E-02
     1         74     1     3  0.616781E+00  0.616781E+00  0.900000E-02
     1         75     1     3  0.625781E+00  0.625781E+00  0.900000E-02
     1         76     1     3  0.634781E+00  0.634781E+00  0.900000E-02
     1         77     1     3  0.643781E+00  0.643781E+00  0.900000E-02
     1         78     1     3  0.652781E+00  0.652781E+00  0.900000E-02
     1         79     1     3  0.661781E+00  0.661781E+00  0.900000E-02
     1         80     1     3  0.670781E+00  0.670781E+00  0.900000E-02
     1         81     1     3  0.679781E+00  0.679781E+00  0.900000E-02
     1         82     1U   60  0.679781E+00  0.679781E+00  0.900000E-02
     1         82     2U   42  0.679781E+00  0.679781E+00  0.900000E-02
     1         82     3     6  0.682031E+00  0.682031E+00  0.225000E-02
     1         83     1     8  0.684281E+00  0.684281E+00  0.225000E-02
     1         84     1     3  0.687656E+00  0.687656E+00  0.337500E-02
     1         85     1     3  0.692719E+00  0.692719E+00  0.506250E-02
     1         86     1     3  0.700313E+00  0.700313E+00  0.759375E-02
     1         87     1     3  0.709313E+00  0.709313E+00  0.900000E-02
     1         88     1     3  0.718313E+00  0.718313E+00  0.900000E-02
     1         89     1     3  0.727313E+00  0.727313E+00  0.900000E-02
     1         90     1     3  0.736313E+00  0.736313E+00  0.900000E-02
     1         91     1     3  0.745313E+00  0.745313E+00  0.900000E-02
     1         92     1     3  0.754313E+00  0.754313E+00  0.900000E-02
     1         93     1     3  0.763313E+00  0.763313E+00  0.900000E-02
     1         94     1     3  0.772313E+00  0.772313E+00  0.900000E-02
     1         95     1     3  0.781313E+00  0.781313E+00  0.900000E-02
     1         96     1     3  0.790313E+00  0.790313E+00  0.900000E-02
     1         97     1     3  0.799313E+00  0.799313E+00  0.900000E-02
     1         98     1     3  0.808313E+00  0.808313E+00  0.900000E-02
     1         99     1     3  0.817313E+00  0.817313E+00  0.900000E-02
     1        100     1     3  0.826313E+00  0.826313E+00  0.900000E-02
     1        101     1    32  0.835313E+00  0.835313E+00  0.900000E-02
     1        102     1    37  0.844313E+00  0.844313E+00  0.900000E-02
     1        103     1U   60  0.844313E+00  0.844313E+00  0.900000E-02
     1        103     2U   60  0.844313E+00  0.844313E+00  0.900000E-02
     1        103     3U   60  0.844313E+00  0.844313E+00  0.450000E-02
     1        103     4U   60  0.844313E+00  0.844313E+00  0.225000E-02
     1        103     5U   60  0.844313E+00  0.844313E+00  0.112500E-02
