**Calculix input file generated by Calculix_input.py 
**Created for investigation 005_Calculix_grid with mesh of 3 3 1 
**element sizes are l=500 t=500 and h=700  and gaps between elements in direction xy
**gap sizes are: 
**if gap direction xy then x = 10.00 and y = 10.00 
**if gap direction x then x = 10.00 and y = 0 
**if gap direction y then x = 0 and y = 10.00

*NODE, NSET=Nall
	1, 0.0000, 0.0000, 0.0000
	2, 500.0000, 0.0000, 0.0000
	3, 510.0000, 0.0000, 0.0000
	4, 1010.0000, 0.0000, 0.0000
	5, 1020.0000, 0.0000, 0.0000
	6, 1520.0000, 0.0000, 0.0000
	7, 0.0000, 500.0000, 0.0000
	8, 500.0000, 500.0000, 0.0000
	9, 510.0000, 500.0000, 0.0000
	10, 1010.0000, 500.0000, 0.0000
	11, 1020.0000, 500.0000, 0.0000
	12, 1520.0000, 500.0000, 0.0000
	13, 0.0000, 510.0000, 0.0000
	14, 500.0000, 510.0000, 0.0000
	15, 510.0000, 510.0000, 0.0000
	16, 1010.0000, 510.0000, 0.0000
	17, 1020.0000, 510.0000, 0.0000
	18, 1520.0000, 510.0000, 0.0000
	19, 0.0000, 1010.0000, 0.0000
	20, 500.0000, 1010.0000, 0.0000
** ... 52 like lines cut
*ELEMENT, TYPE=C3D8, ELSET=Eall
	1, 1, 2, 8, 7, 37, 38, 44, 43
	2, 3, 4, 10, 9, 39, 40, 46, 45
	3, 5, 6, 12, 11, 41, 42, 48, 47
	4, 13, 14, 20, 19, 49, 50, 56, 55
	5, 15, 16, 22, 21, 51, 52, 58, 57
	6, 17, 18, 24, 23, 53, 54, 60, 59
	7, 25, 26, 32, 31, 61, 62, 68, 67
	8, 27, 28, 34, 33, 63, 64, 70, 69
	9, 29, 30, 36, 35, 65, 66, 72, 71
*ELEMENT,TYPE=SPRINGA,ELSET=S_SPRINGS
	10, 2, 3
	11, 8, 9
	12, 38, 39
	13, 44, 45
	14, 4, 5
	15, 10, 11
	16, 40, 41
	17, 46, 47
	18, 14, 15
	19, 20, 21
	20, 50, 51
	21, 56, 57
	22, 16, 17
	23, 22, 23
	24, 52, 53
	25, 58, 59
	26, 26, 27
	27, 32, 33
	28, 62, 63
	29, 68, 69
** ... 28 like lines cut

*NSET,NSET=cubes_xy_plane
1,
2,
3,
4,
5,
6,
7,
8,
9,
10,
11,
12,
13,
14,
15,
16,
17,
18,
19,
20,
** ... 16 like lines cut

*NSET,NSET=cubes_xz_plane
1,
2,
3,
4,
5,
6,
37,
38,
39,
40,
41,
42,

*NSET,NSET=cubes_yz_plane
1,
7,
13,
19,
25,
31,
37,
43,
49,
55,
61,
67,

*NSET,NSET=cubes_x_max
6,
12,
18,
24,
30,
36,
42,
48,
54,
60,
66,
72,

*NSET,NSET=cubes_y_max
31,
32,
33,
34,
35,
36,
67,
68,
69,
70,
71,
72,

*NSET,NSET=cubes_z_max
37,
38,
39,
40,
41,
42,
43,
44,
45,
46,
47,
48,
49,
50,
51,
52,
53,
54,
55,
56,
** ... 16 like lines cut

*NSET,NSET=cube9
29,
30,
36,
35,
65,
66,
72,
71,

*BOUNDARY
cubes_xy_plane,3,3
cubes_xz_plane,2,2
cubes_yz_plane,1,1

*PHYSICAL CONSTANTS, ABSOLUTE ZERO=0.0000, STEFAN BOLTZMANN=5.67E-08

*INITIAL CONDITIONS, TYPE=TEMPERATURE
Nall,  0.0000

*MATERIAL,NAME=EL
*ELASTIC
210000.000,   0.3000
*DENSITY
7800.000
*CONDUCTIVITY
1000.000
*EXPANSION
2.50E-05
*SPECIFIC HEAT
5000.000

*SOLID SECTION,ELSET=Eall,MATERIAL=EL

*SPRING,ELSET=S_SPRINGS
 1.00E+00

*SURFACE,NAME=el1_x_p
1,S4
*SURFACE,NAME=el1_x_n
1,S6
*SURFACE,NAME=el1_y_p
1,S5
*SURFACE,NAME=el1_y_n
1,S3
*SURFACE,NAME=el2_x_p
2,S4
*SURFACE,NAME=el2_x_n
2,S6
*SURFACE,NAME=el2_y_p
2,S5
*SURFACE,NAME=el2_y_n
2,S3
*SURFACE,NAME=el3_x_p
3,S4
*SURFACE,NAME=el3_x_n
3,S6
*SURFACE,NAME=el3_y_p
3,S5
*SURFACE,NAME=el3_y_n
3,S3
*SURFACE,NAME=el4_x_p
4,S4
*SURFACE,NAME=el4_x_n
4,S6
*SURFACE,NAME=el4_y_p
4,S5
*SURFACE,NAME=el4_y_n
4,S3
*SURFACE,NAME=el5_x_p
5,S4
*SURFACE,NAME=el5_x_n
5,S6
*SURFACE,NAME=el5_y_p
5,S5
*SURFACE,NAME=el5_y_n
5,S3
*SURFACE,NAME=el6_x_p
6,S4
*SURFACE,NAME=el6_x_n
6,S6
*SURFACE,NAME=el6_y_p
6,S5
*SURFACE,NAME=el6_y_n
6,S3
*SURFACE,NAME=el7_x_p
7,S4
*SURFACE,NAME=el7_x_n
7,S6
*SURFACE,NAME=el7_y_p
7,S5
*SURFACE,NAME=el7_y_n
7,S3
*SURFACE,NAME=el8_x_p
8,S4
*SURFACE,NAME=el8_x_n
8,S6
*SURFACE,NAME=el8_y_p
8,S5
*SURFACE,NAME=el8_y_n
8,S3
*SURFACE,NAME=el9_x_p
9,S4
*SURFACE,NAME=el9_x_n
9,S6
*SURFACE,NAME=el9_y_p
9,S5
*SURFACE,NAME=el9_y_n
9,S3
*CONTACT PAIR,INTERACTION=SI1,TYPE=SURFACE TO SURFACE
el1_x_p,el2_x_n
*CONTACT PAIR,INTERACTION=SI1,TYPE=SURFACE TO SURFACE
el2_x_p,el3_x_n
*CONTACT PAIR,INTERACTION=SI1,TYPE=SURFACE TO SURFACE
el4_x_p,el5_x_n
*CONTACT PAIR,INTERACTION=SI1,TYPE=SURFACE TO SURFACE
el5_x_p,el6_x_n
*CONTACT PAIR,INTERACTION=SI1,TYPE=SURFACE TO SURFACE
el7_x_p,el8_x_n
*CONTACT PAIR,INTERACTION=SI1,TYPE=SURFACE TO SURFACE
el8_x_p,el9_x_n
*CONTACT PAIR,INTERACTION=SI1,TYPE=SURFACE TO SURFACE
el1_y_p,el4_y_n
*CONTACT PAIR,INTERACTION=SI1,TYPE=SURFACE TO SURFACE
el2_y_p,el5_y_n
*CONTACT PAIR,INTERACTION=SI1,TYPE=SURFACE TO SURFACE
el3_y_p,el6_y_n
*CONTACT PAIR,INTERACTION=SI1,TYPE=SURFACE TO SURFACE
el4_y_p,el7_y_n
*CONTACT PAIR,INTERACTION=SI1,TYPE=SURFACE TO SURFACE
el5_y_p,el8_y_n
*CONTACT PAIR,INTERACTION=SI1,TYPE=SURFACE TO SURFACE
el6_y_p,el9_y_n
*SURFACE INTERACTION,NAME=SI1
*SURFACE BEHAVIOR,PRESSURE-OVERCLOSURE=LINEAR
1.00E+07

*STEP, INC=10000, NLGEOM
*STATIC
0.001, 1., 0.001, 0.009
*BOUNDARY
cubes_x_max,1,1,-30
cubes_y_max,2,2,-30

**Specify output 
*NODE PRINT, NSET=Nall, FREQUENCY=1
U
*EL PRINT, ELSET=Eall, FREQUENCY=1
S,E
*NODE FILE, FREQUENCY=1
U
*EL FILE, FREQUENCY=1
S,E
*END STEP