SUMMARY OF JOB INFORMATION
  STEP      INC     ATT  ITRS     TOT TIME     STEP TIME      INC TIME
     1          1     1     3  0.100000E-02  0.100000E-02  0.100000E-02
     1          2     1     2  0.200000E-02  0.200000E-02  0.100000E-02
     1          3     1     2  0.350000E-02  0.350000E-02  0.150000E-02
     1          4     1     2  0.575000E-02  0.575000E-02  0.225000E-02
     1          5     1     2  0.912500E-02  0.912500E-02  0.337500E-02
     1          6     1     2  0.141875E-01  0.141875E-01  0.506250E-02
     1          7     1     3  0.217813E-01  0.217813E-01  0.759375E-02
     1          8     1     3  0.307813E-01  0.307813E-01  0.900000E-02
     1          9     1     3  0.397813E-01  0.397813E-01  0.900000E-02
     1         10     1     3  0.487813E-01  0.487813E-01  0.900000E-02
     1         11     1     3  0.577813E-01  0.577813E-01  0.900000E-02
     1         12     1     3  0.667813E-01  0.667813E-01  0.900000E-02
     1         13     1     3  0.757812E-01  0.757812E-01  0.900000E-02
     1         14     1     3  0.847812E-01  0.847812E-01  0.900000E-02
     1         15     1     3  0.937812E-01  0.937812E-01  0.900000E-02
     1         16     1     3  0.102781E+00  0.102781E+00  0.900000E-02
     1         17     1     3  0.111781E+00  0.111781E+00  0.900000E-02
     1         18     1     3  0.120781E+00  0.120781E+00  0.900000E-02
     1         19     1     3  0.129781E+00  0.129781E+00  0.900000E-02
     1         20     1     3  0.138781E+00  0.138781E+00  0.900000E-02
     1         21     1     3  0.147781E+00  0.147781E+00  0.900000E-02
     1         22     1     3  0.156781E+00  0.156781E+00  0.900000E-02
     1         23     1     3  0.165781E+00  0.165781E+00  0.900000E-02
     1         24     1     3  0.174781E+00  0.174781E+00  0.900000E-02
     1         25     1     3  0.183781E+00  0.183781E+00  0.900000E-02
     1         26     1     3  0.192781E+00  0.192781E+00  0.900000E-02
     1         27     1     3  0.201781E+00  0.201781E+00  0.900000E-02
     1         28     1     2  0.210781E+00  0.210781E+00  0.900000E-02
     1         29     1     3  0.219781E+00  0.219781E+00  0.900000E-02
     1         30     1     3  0.228781E+00  0.228781E+00  0.900000E-02
     1         31     1     3  0.237781E+00  0.237781E+00  0.900000E-02
     1         32     1     3  0.246781E+00  0.246781E+00  0.900000E-02
     1         33     1     3  0.255781E+00  0.255781E+00  0.900000E-02
     1         34     1     3  0.264781E+00  0.264781E+00  0.900000E-02
     1         35     1     3  0.273781E+00  0.273781E+00  0.900000E-02
     1         36     1     3  0.282781E+00  0.282781E+00  0.900000E-02
     1         37     1     3  0.291781E+00  0.291781E+00  0.900000E-02
     1         38     1     3  0.300781E+00  0.300781E+00  0.900000E-02
     1         39     1     3  0.309781E+00  0.309781E+00  0.900000E-02
     1         40     1     3  0.318781E+00  0.318781E+00  0.900000E-02
     1         41     1     3  0.327781E+00  0.327781E+00  0.900000E-02
     1         42     1U   60  0.327781E+00  0.327781E+00  0.900000E-02
     1         42     2U   60  0.327781E+00  0.327781E+00  0.900000E-02
     1         42     3     4  0.332281E+00  0.332281E+00  0.450000E-02
     1         43     1U   60  0.332281E+00  0.332281E+00  0.450000E-02
     1         43     2U   60  0.332281E+00  0.332281E+00  0.450000E-02
     1         43     3U   60  0.332281E+00  0.332281E+00  0.225000E-02
     1         43     4U   60  0.332281E+00  0.332281E+00  0.112500E-02
