SUMMARY OF JOB INFORMATION
  STEP      INC     ATT  ITRS     TOT TIME     STEP TIME      INC TIME
     1          1     1     2  0.500000E-01  0.500000E-01  0.500000E-01
     1          2     1     2  0.100000E+00  0.100000E+00  0.500000E-01
     1          3     1     2  0.150000E+00  0.150000E+00  0.500000E-01
     1          4     1     2  0.200000E+00  0.200000E+00  0.500000E-01
     1          5     1     2  0.250000E+00  0.250000E+00  0.500000E-01
     1          6     1     2  0.300000E+00  0.300000E+00  0.500000E-01
     1          7     1     2  0.350000E+00  0.350000E+00  0.500000E-01
     1          8     1     2  0.400000E+00  0.400000E+00  0.500000E-01
     1          9     1     2  0.450000E+00  0.450000E+00  0.500000E-01
     1         10     1     2  0.500000E+00  0.500000E+00  0.500000E-01
     1         11     1     2  0.550000E+00  0.550000E+00  0.500000E-01
     1         12     1     2  0.600000E+00  0.600000E+00  0.500000E-01
     1         13     1     2  0.650000E+00  0.650000E+00  0.500000E-01
     1         14     1     2  0.700000E+00  0.700000E+00  0.500000E-01
     1         15     1     2  0.750000E+00  0.750000E+00  0.500000E-01
     1         16     1     2  0.800000E+00  0.800000E+00  0.500000E-01
     1         17     1     2  0.850000E+00  0.850000E+00  0.500000E-01
     1         18     1     2  0.900000E+00  0.900000E+00  0.500000E-01
     1         19     1     2  0.950000E+00  0.950000E+00  0.500000E-01
     1         20     1     2  0.100000E+01  0.100000E+01  0.500000E-01
