**Calculix input file generated by Calculix_input.py 
**Created for investigation 005_Calculix_grid with mesh of 5 5 1 
**element sizes are l=500 t=500 and h=700  and gaps between elements in direction xy
**gap sizes are: 
**if gap direction xy then x = 250.00 and y = 250.00 
**if gap direction x then x = 250.00 and y = 0 
**if gap direction y then x = 0 and y = 250.00

*NODE, NSET=Nall
	1, 0.0000, 0.0000, 0.0000
	2, 500.0000, 0.0000, 0.0000
	3, 750.0000, 0.0000, 0.0000
	4, 1250.0000, 0.0000, 0.0000
	5, 1500.0000, 0.0000, 0.0000
	6, 2000.0000, 0.0000, 0.0000
	7, 2250.0000, 0.0000, 0.0000
	8, 2750.0000, 0.0000, 0.0000
	9, 3000.0000, 0.0000, 0.0000
	10, 3500.0000, 0.0000, 0.0000
	11, 0.0000, 500.0000, 0.0000
	12, 500.0000, 500.0000, 0.0000
	13, 750.0000, 500.0000, 0.0000
	14, 1250.0000, 500.0000, 0.0000
	15, 1500.0000, 500.0000, 0.0000
	16, 2000.0000, 500.0000, 0.0000
	17, 2250.0000, 500.0000, 0.0000
	18, 2750.0000, 500.0000, 0.0000
	19, 3000.0000, 500.0000, 0.0000
	20, 3500.0000, 500.0000, 0.0000
** ... 180 like lines cut
*ELEMENT, TYPE=C3D8, ELSET=Eall
	1, 1, 2, 12, 11, 101, 102, 112, 111
	2, 3, 4, 14, 13, 103, 104, 114, 113
	3, 5, 6, 16, 15, 105, 106, 116, 115
	4, 7, 8, 18, 17, 107, 108, 118, 117
	5, 9, 10, 20, 19, 109, 110, 120, 119
	6, 19, 20, 30, 29, 119, 120, 130, 129
	7, 21, 22, 32, 31, 121, 122, 132, 131
	8, 23, 24, 34, 33, 123, 124, 134, 133
	9, 25, 26, 36, 35, 125, 126, 136, 135
	10, 27, 28, 38, 37, 127, 128, 138, 137
	11, 37, 38, 48, 47, 137, 138, 148, 147
	12, 39, 40, 50, 49, 139, 140, 150, 149
	13, 41, 42, 52, 51, 141, 142, 152, 151
	14, 43, 44, 54, 53, 143, 144, 154, 153
	15, 45, 46, 56, 55, 145, 146, 156, 155
	16, 55, 56, 66, 65, 155, 156, 166, 165
	17, 57, 58, 68, 67, 157, 158, 168, 167
	18, 59, 60, 70, 69, 159, 160, 170, 169
	19, 61, 62, 72, 71, 161, 162, 172, 171
	20, 63, 64, 74, 73, 163, 164, 174, 173
** ... 5 like lines cut

*NSET,NSET=cubes_xy_plane
1,
2,
3,
4,
5,
6,
7,
8,
9,
10,
11,
12,
13,
14,
15,
16,
17,
18,
19,
20,
** ... 80 like lines cut

*NSET,NSET=cubes_xz_plane
1,
2,
3,
4,
5,
6,
7,
8,
9,
10,
101,
102,
103,
104,
105,
106,
107,
108,
109,
110,

*NSET,NSET=cubes_yz_plane
1,
11,
21,
31,
41,
51,
61,
71,
81,
91,
101,
111,
121,
131,
141,
151,
161,
171,
181,
191,

*NSET,NSET=cubes_x_max
10,
20,
30,
40,
50,
60,
70,
80,
90,
100,
110,
120,
130,
140,
150,
160,
170,
180,
190,
200,

*NSET,NSET=cubes_y_max
91,
92,
93,
94,
95,
96,
97,
98,
99,
100,
191,
192,
193,
194,
195,
196,
197,
198,
199,
200,

*NSET,NSET=cubes_z_max
101,
102,
103,
104,
105,
106,
107,
108,
109,
110,
111,
112,
113,
114,
115,
116,
117,
118,
119,
120,
** ... 80 like lines cut

*NSET,NSET=cube9
81,
82,
92,
91,
181,
182,
192,
191,

*BOUNDARY
cubes_xy_plane,3,3
cubes_xz_plane,2,2
cubes_yz_plane,1,1

*PHYSICAL CONSTANTS, ABSOLUTE ZERO=0.0000, STEFAN BOLTZMANN=5.67E-08

*INITIAL CONDITIONS, TYPE=TEMPERATURE
Nall,  0.0000

*MATERIAL,NAME=EL
*ELASTIC
210000.000,   0.3000
*DENSITY
7800.000
*CONDUCTIVITY
1000.000
*EXPANSION
2.50E-05
*SPECIFIC HEAT
5000.000

*SOLID SECTION,ELSET=Eall,MATERIAL=EL

*SURFACE,NAME=el1_x_p
1,S4
*SURFACE,NAME=el1_x_n
1,S6
*SURFACE,NAME=el1_y_p
1,S5
*SURFACE,NAME=el1_y_n
1,S3
*SURFACE,NAME=el2_x_p
2,S4
*SURFACE,NAME=el2_x_n
2,S6
*SURFACE,NAME=el2_y_p
2,S5
*SURFACE,NAME=el2_y_n
2,S3
*SURFACE,NAME=el3_x_p
3,S4
*SURFACE,NAME=el3_x_n
3,S6
*SURFACE,NAME=el3_y_p
3,S5
*SURFACE,NAME=el3_y_n
3,S3
*SURFACE,NAME=el4_x_p
4,S4
*SURFACE,NAME=el4_x_n
4,S6
*SURFACE,NAME=el4_y_p
4,S5
*SURFACE,NAME=el4_y_n
4,S3
*SURFACE,NAME=el5_x_p
5,S4
*SURFACE,NAME=el5_x_n
5,S6
*SURFACE,NAME=el5_y_p
5,S5
*SURFACE,NAME=el5_y_n
5,S3
*SURFACE,NAME=el6_x_p
6,S4
*SURFACE,NAME=el6_x_n
6,S6
*SURFACE,NAME=el6_y_p
6,S5
*SURFACE,NAME=el6_y_n
6,S3
*SURFACE,NAME=el7_x_p
7,S4
*SURFACE,NAME=el7_x_n
7,S6
*SURFACE,NAME=el7_y_p
7,S5
*SURFACE,NAME=el7_y_n
7,S3
*SURFACE,NAME=el8_x_p
8,S4
*SURFACE,NAME=el8_x_n
8,S6
*SURFACE,NAME=el8_y_p
8,S5
*SURFACE,NAME=el8_y_n
8,S3
*SURFACE,NAME=el9_x_p
9,S4
*SURFACE,NAME=el9_x_n
9,S6
*SURFACE,NAME=el9_y_p
9,S5
*SURFACE,NAME=el9_y_n
9,S3
*SURFACE,NAME=el10_x_p
10,S4
*SURFACE,NAME=el10_x_n
10,S6
*SURFACE,NAME=el10_y_p
10,S5
*SURFACE,NAME=el10_y_n
10,S3
*SURFACE,NAME=el11_x_p
11,S4
*SURFACE,NAME=el11_x_n
11,S6
*SURFACE,NAME=el11_y_p
11,S5
*SURFACE,NAME=el11_y_n
11,S3
*SURFACE,NAME=el12_x_p
12,S4
*SURFACE,NAME=el12_x_n
12,S6
*SURFACE,NAME=el12_y_p
12,S5
*SURFACE,NAME=el12_y_n
12,S3
*SURFACE,NAME=el13_x_p
13,S4
*SURFACE,NAME=el13_x_n
13,S6
*SURFACE,NAME=el13_y_p
13,S5
*SURFACE,NAME=el13_y_n
13,S3
*SURFACE,NAME=el14_x_p
14,S4
*SURFACE,NAME=el14_x_n
14,S6
*SURFACE,NAME=el14_y_p
14,S5
*SURFACE,NAME=el14_y_n
14,S3
*SURFACE,NAME=el15_x_p
15,S4
*SURFACE,NAME=el15_x_n
15,S6
*SURFACE,NAME=el15_y_p
15,S5
*SURFACE,NAME=el15_y_n
15,S3
*SURFACE,NAME=el16_x_p
16,S4
*SURFACE,NAME=el16_x_n
16,S6
*SURFACE,NAME=el16_y_p
16,S5
*SURFACE,NAME=el16_y_n
16,S3
*SURFACE,NAME=el17_x_p
17,S4
*SURFACE,NAME=el17_x_n
17,S6
*SURFACE,NAME=el17_y_p
17,S5
*SURFACE,NAME=el17_y_n
17,S3
*SURFACE,NAME=el18_x_p
18,S4
*SURFACE,NAME=el18_x_n
18,S6
*SURFACE,NAME=el18_y_p
18,S5
*SURFACE,NAME=el18_y_n
18,S3
*SURFACE,NAME=el19_x_p
19,S4
*SURFACE,NAME=el19_x_n
19,S6
*SURFACE,NAME=el19_y_p
19,S5
*SURFACE,NAME=el19_y_n
19,S3
*SURFACE,NAME=el20_x_p
20,S4
*SURFACE,NAME=el20_x_n
20,S6
*SURFACE,NAME=el20_y_p
20,S5
*SURFACE,NAME=el20_y_n
20,S3
*SURFACE,NAME=el21_x_p
21,S4
*SURFACE,NAME=el21_x_n
21,S6
*SURFACE,NAME=el21_y_p
21,S5
*SURFACE,NAME=el21_y_n
21,S3
*SURFACE,NAME=el22_x_p
22,S4
*SURFACE,NAME=el22_x_n
22,S6
*SURFACE,NAME=el22_y_p
22,S5
*SURFACE,NAME=el22_y_n
22,S3
*SURFACE,NAME=el23_x_p
23,S4
*SURFACE,NAME=el23_x_n
23,S6
*SURFACE,NAME=el23_y_p
23,S5
*SURFACE,NAME=el23_y_n
23,S3
*SURFACE,NAME=el24_x_p
24,S4
*SURFACE,NAME=el24_x_n
24,S6
*SURFACE,NAME=el24_y_p
24,S5
*SURFACE,NAME=el24_y_n
24,S3
*SURFACE,NAME=el25_x_p
25,S4
*SURFACE,NAME=el25_x_n
25,S6
*SURFACE,NAME=el25_y_p
25,S5
*SURFACE,NAME=el25_y_n
25,S3
*CONTACT PAIR,INTERACTION=SI1,TYPE=SURFACE TO SURFACE
el1_x_p,el2_x_n
*CONTACT PAIR,INTERACTION=SI1,TYPE=SURFACE TO SURFACE
el2_x_p,el3_x_n
*CONTACT PAIR,INTERACTION=SI1,TYPE=SURFACE TO SURFACE
el3_x_p,el4_x_n
*CONTACT PAIR,INTERACTION=SI1,TYPE=SURFACE TO SURFACE
el4_x_p,el5_x_n
*CONTACT PAIR,INTERACTION=SI1,TYPE=SURFACE TO SURFACE
el6_x_p,el7_x_n
*CONTACT PAIR,INTERACTION=SI1,TYPE=SURFACE TO SURFACE
el7_x_p,el8_x_n
*CONTACT PAIR,INTERACTION=SI1,TYPE=SURFACE TO SURFACE
el8_x_p,el9_x_n
*CONTACT PAIR,INTERACTION=SI1,TYPE=SURFACE TO SURFACE
el9_x_p,el10_x_n
*CONTACT PAIR,INTERACTION=SI1,TYPE=SURFACE TO SURFACE
el11_x_p,el12_x_n
*CONTACT PAIR,INTERACTION=SI1,TYPE=SURFACE TO SURFACE
el12_x_p,el13_x_n
*CONTACT PAIR,INTERACTION=SI1,TYPE=SURFACE TO SURFACE
el13_x_p,el14_x_n
*CONTACT PAIR,INTERACTION=SI1,TYPE=SURFACE TO SURFACE
el14_x_p,el15_x_n
*CONTACT PAIR,INTERACTION=SI1,TYPE=SURFACE TO SURFACE
el16_x_p,el17_x_n
*CONTACT PAIR,INTERACTION=SI1,TYPE=SURFACE TO SURFACE
el17_x_p,el18_x_n
*CONTACT PAIR,INTERACTION=SI1,TYPE=SURFACE TO SURFACE
el18_x_p,el19_x_n
*CONTACT PAIR,INTERACTION=SI1,TYPE=SURFACE TO SURFACE
el19_x_p,el20_x_n
*CONTACT PAIR,INTERACTION=SI1,TYPE=SURFACE TO SURFACE
el21_x_p,el22_x_n
*CONTACT PAIR,INTERACTION=SI1,TYPE=SURFACE TO SURFACE
el22_x_p,el23_x_n
*CONTACT PAIR,INTERACTION=SI1,TYPE=SURFACE TO SURFACE
el23_x_p,el24_x_n
*CONTACT PAIR,INTERACTION=SI1,TYPE=SURFACE TO SURFACE
el24_x_p,el25_x_n
*CONTACT PAIR,INTERACTION=SI1,TYPE=SURFACE TO SURFACE
el1_y_p,el6_y_n
*CONTACT PAIR,INTERACTION=SI1,TYPE=SURFACE TO SURFACE
el2_y_p,el7_y_n
*CONTACT PAIR,INTERACTION=SI1,TYPE=SURFACE TO SURFACE
el3_y_p,el8_y_n
*CONTACT PAIR,INTERACTION=SI1,TYPE=SURFACE TO SURFACE
el4_y_p,el9_y_n
*CONTACT PAIR,INTERACTION=SI1,TYPE=SURFACE TO SURFACE
el5_y_p,el10_y_n
*CONTACT PAIR,INTERACTION=SI1,TYPE=SURFACE TO SURFACE
el6_y_p,el11_y_n
*CONTACT PAIR,INTERACTION=SI1,TYPE=SURFACE TO SURFACE
el7_y_p,el12_y_n
*CONTACT PAIR,INTERACTION=SI1,TYPE=SURFACE TO SURFACE
el8_y_p,el13_y_n
*CONTACT PAIR,INTERACTION=SI1,TYPE=SURFACE TO SURFACE
el9_y_p,el14_y_n
*CONTACT PAIR,INTERACTION=SI1,TYPE=SURFACE TO SURFACE
el10_y_p,el15_y_n
*CONTACT PAIR,INTERACTION=SI1,TYPE=SURFACE TO SURFACE
el11_y_p,el16_y_n
*CONTACT PAIR,INTERACTION=SI1,TYPE=SURFACE TO SURFACE
el12_y_p,el17_y_n
*CONTACT PAIR,INTERACTION=SI1,TYPE=SURFACE TO SURFACE
el13_y_p,el18_y_n
*CONTACT PAIR,INTERACTION=SI1,TYPE=SURFACE TO SURFACE
el14_y_p,el19_y_n
*CONTACT PAIR,INTERACTION=SI1,TYPE=SURFACE TO SURFACE
el15_y_p,el20_y_n
*CONTACT PAIR,INTERACTION=SI1,TYPE=SURFACE TO SURFACE
el16_y_p,el21_y_n
*CONTACT PAIR,INTERACTION=SI1,TYPE=SURFACE TO SURFACE
el17_y_p,el22_y_n
*CONTACT PAIR,INTERACTION=SI1,TYPE=SURFACE TO SURFACE
el18_y_p,el23_y_n
*CONTACT PAIR,INTERACTION=SI1,TYPE=SURFACE TO SURFACE
el19_y_p,el24_y_n
*CONTACT PAIR,INTERACTION=SI1,TYPE=SURFACE TO SURFACE
el20_y_p,el25_y_n
*SURFACE INTERACTION,NAME=SI1
*SURFACE BEHAVIOR,PRESSURE-OVERCLOSURE=LINEAR
1.00E+07

*STEP, INC=10000, NLGEOM
*STATIC
0.001, 1., 0.001, 0.009
*BOUNDARY
cubes_x_max,1,1,-30
cubes_y_max,2,2,-30

**Specify output 
*NODE PRINT, NSET=Nall, FREQUENCY=1
U
*EL PRINT, ELSET=Eall, FREQUENCY=1
S,E
*NODE FILE, FREQUENCY=1
U
*EL FILE, FREQUENCY=1
S,E
*END STEP