SUMMARY OF JOB INFORMATION
  STEP      INC     ATT  ITRS     TOT TIME     STEP TIME      INC TIME
     1          1     1     2  0.100000E-02  0.100000E-02  0.100000E-02
     1          2     1     2  0.200000E-02  0.200000E-02  0.100000E-02
     1          3     1     2  0.350000E-02  0.350000E-02  0.150000E-02
     1          4     1     2  0.575000E-02  0.575000E-02  0.225000E-02
     1          5     1     2  0.912500E-02  0.912500E-02  0.337500E-02
     1          6     1     2  0.141875E-01  0.141875E-01  0.506250E-02
     1          7     1     2  0.217813E-01  0.217813E-01  0.759375E-02
     1          8     1     2  0.307813E-01  0.307813E-01  0.900000E-02
     1          9     1     2  0.397813E-01  0.397813E-01  0.900000E-02
     1         10     1     2  0.487813E-01  0.487813E-01  0.900000E-02
     1         11     1     2  0.577813E-01  0.577813E-01  0.900000E-02
     1         12     1     2  0.667813E-01  0.667813E-01  0.900000E-02
     1         13     1     2  0.757812E-01  0.757812E-01  0.900000E-02
     1         14     1     2  0.847812E-01  0.847812E-01  0.900000E-02
     1         15     1     2  0.937812E-01  0.937812E-01  0.900000E-02
     1         16     1     2  0.102781E+00  0.102781E+00  0.900000E-02
     1         17     1     2  0.111781E+00  0.111781E+00  0.900000E-02
     1         18     1     2  0.120781E+00  0.120781E+00  0.900000E-02
     1         19     1     2  0.129781E+00  0.129781E+00  0.900000E-02
     1         20     1     2  0.138781E+00  0.138781E+00  0.900000E-02
     1         21     1     2  0.147781E+00  0.147781E+00  0.900000E-02
     1         22     1     2  0.156781E+00  0.156781E+00  0.900000E-02
     1         23     1     2  0.165781E+00  0.165781E+00  0.900000E-02
     1         24     1     2  0.174781E+00  0.174781E+00  0.900000E-02
     1         25     1     2  0.183781E+00  0.183781E+00  0.900000E-02
     1         26     1     2  0.192781E+00  0.192781E+00  0.900000E-02
     1         27     1     2  0.201781E+00  0.201781E+00  0.900000E-02
     1         28     1     2  0.210781E+00  0.210781E+00  0.900000E-02
     1         29     1     2  0.219781E+00  0.219781E+00  0.900000E-02
     1         30     1     2  0.228781E+00  0.228781E+00  0.900000E-02
     1         31     1     2  0.237781E+00  0.237781E+00  0.900000E-02
     1         32     1     2  0.246781E+00  0.246781E+00  0.900000E-02
     1         33     1     2  0.255781E+00  0.255781E+00  0.900000E-02
     1         34     1     2  0.264781E+00  0.264781E+00  0.900000E-02
     1         35     1     2  0.273781E+00  0.273781E+00  0.900000E-02
     1         36     1     2  0.282781E+00  0.282781E+00  0.900000E-02
     1         37     1     2  0.291781E+00  0.291781E+00  0.900000E-02
     1         38     1     2  0.300781E+00  0.300781E+00  0.900000E-02
     1         39     1     2  0.309781E+00  0.309781E+00  0.900000E-02
     1         40     1     2  0.318781E+00  0.318781E+00  0.900000E-02
     1         41     1     2  0.327781E+00  0.327781E+00  0.900000E-02
     1         42     1    16  0.336781E+00  0.336781E+00  0.900000E-02
     1         43     1    13  0.345781E+00  0.345781E+00  0.900000E-02
     1         44     1    14  0.354781E+00  0.354781E+00  0.900000E-02
     1         45     1    12  0.363781E+00  0.363781E+00  0.900000E-02
     1         46     1    13  0.372781E+00  0.372781E+00  0.900000E-02
     1         47     1    13  0.381781E+00  0.381781E+00  0.900000E-02
     1         48     1     8  0.390781E+00  0.390781E+00  0.900000E-02
     1         49     1     6  0.399781E+00  0.399781E+00  0.900000E-02
     1         50     1     6  0.408781E+00  0.408781E+00  0.900000E-02
     1         51     1     4  0.417781E+00  0.417781E+00  0.900000E-02
     1         52     1    16  0.426781E+00  0.426781E+00  0.900000E-02
     1         53     1    10  0.435781E+00  0.435781E+00  0.900000E-02
     1         54     1     6  0.444781E+00  0.444781E+00  0.900000E-02
     1         55     1     5  0.453781E+00  0.453781E+00  0.900000E-02
     1         56     1    17  0.462781E+00  0.462781E+00  0.900000E-02
     1         57     1    14  0.471781E+00  0.471781E+00  0.900000E-02
     1         58     1    15  0.480781E+00  0.480781E+00  0.900000E-02
     1         59     1    14  0.489781E+00  0.489781E+00  0.900000E-02
     1         60     1    30  0.498781E+00  0.498781E+00  0.900000E-02
     1         61     1    17  0.507781E+00  0.507781E+00  0.900000E-02
     1         62     1    12  0.516781E+00  0.516781E+00  0.900000E-02
     1         63     1     4  0.525781E+00  0.525781E+00  0.900000E-02
     1         64     1    10  0.534781E+00  0.534781E+00  0.900000E-02
     1         65     1    13  0.543781E+00  0.543781E+00  0.900000E-02
     1         66     1    34  0.552781E+00  0.552781E+00  0.900000E-02
     1         67     1    12  0.561781E+00  0.561781E+00  0.900000E-02
     1         68     1    11  0.570781E+00  0.570781E+00  0.900000E-02
     1         69     1    13  0.579781E+00  0.579781E+00  0.900000E-02
     1         70     1    13  0.588781E+00  0.588781E+00  0.900000E-02
     1         71     1    13  0.597781E+00  0.597781E+00  0.900000E-02
     1         72     1    19  0.606781E+00  0.606781E+00  0.900000E-02
     1         73     1     6  0.615781E+00  0.615781E+00  0.900000E-02
     1         74     1    12  0.624781E+00  0.624781E+00  0.900000E-02
     1         75     1    11  0.633781E+00  0.633781E+00  0.900000E-02
     1         76     1    10  0.642781E+00  0.642781E+00  0.900000E-02
     1         77     1    10  0.651781E+00  0.651781E+00  0.900000E-02
     1         78     1    10  0.660781E+00  0.660781E+00  0.900000E-02
     1         79     1    10  0.669781E+00  0.669781E+00  0.900000E-02
     1         80     1     7  0.678781E+00  0.678781E+00  0.900000E-02
     1         81     1    14  0.687781E+00  0.687781E+00  0.900000E-02
     1         82     1     5  0.696781E+00  0.696781E+00  0.900000E-02
     1         83     1    19  0.705781E+00  0.705781E+00  0.900000E-02
     1         84     1    35  0.714781E+00  0.714781E+00  0.900000E-02
     1         85     1     7  0.723781E+00  0.723781E+00  0.900000E-02
     1         86     1    12  0.732781E+00  0.732781E+00  0.900000E-02
     1         87     1    22  0.741781E+00  0.741781E+00  0.900000E-02
     1         88     1    17  0.750781E+00  0.750781E+00  0.900000E-02
     1         89     1    17  0.759781E+00  0.759781E+00  0.900000E-02
     1         90     1     4  0.768781E+00  0.768781E+00  0.900000E-02
     1         91     1    60  0.777781E+00  0.777781E+00  0.900000E-02
     1         92     1    11  0.786781E+00  0.786781E+00  0.900000E-02
     1         93     1    28  0.795781E+00  0.795781E+00  0.900000E-02
     1         94     1     6  0.804781E+00  0.804781E+00  0.900000E-02
     1         95     1    23  0.813781E+00  0.813781E+00  0.900000E-02
     1         96     1    38  0.822781E+00  0.822781E+00  0.900000E-02
     1         97     1    19  0.831781E+00  0.831781E+00  0.900000E-02
     1         98     1    20  0.840781E+00  0.840781E+00  0.900000E-02
     1         99     1    16  0.849781E+00  0.849781E+00  0.900000E-02
     1        100     1U   60  0.849781E+00  0.849781E+00  0.900000E-02
     1        100     2    36  0.858781E+00  0.858781E+00  0.900000E-02
     1        101     1     5  0.867781E+00  0.867781E+00  0.900000E-02
     1        102     1    39  0.876781E+00  0.876781E+00  0.900000E-02
     1        103     1     8  0.885781E+00  0.885781E+00  0.900000E-02
     1        104     1    24  0.894781E+00  0.894781E+00  0.900000E-02
     1        105     1    17  0.903781E+00  0.903781E+00  0.900000E-02
     1        106     1    10  0.912781E+00  0.912781E+00  0.900000E-02
     1        107     1    16  0.921781E+00  0.921781E+00  0.900000E-02
     1        108     1    14  0.930781E+00  0.930781E+00  0.900000E-02
     1        109     1     7  0.939781E+00  0.939781E+00  0.900000E-02
     1        110     1    17  0.948781E+00  0.948781E+00  0.900000E-02
     1        111     1    45  0.957781E+00  0.957781E+00  0.900000E-02
     1        112     1    11  0.966781E+00  0.966781E+00  0.900000E-02
     1        113     1     9  0.975781E+00  0.975781E+00  0.900000E-02
     1        114     1    57  0.984781E+00  0.984781E+00  0.900000E-02
     1        115     1    17  0.993781E+00  0.993781E+00  0.900000E-02
     1        116     1    15  0.100000E+01  0.100000E+01  0.621875E-02
